**$ENCRYPTED_LIB
**$INTERFACE
*$
* TPS7A0530P
*****************************************************************************
* (C) Copyright 2018 Texas Instruments Incorporated. All rights reserved.
*****************************************************************************
** This model is designed as an aid for customers of Texas Instruments.
** TI and its licensors and suppliers make no warranties, either expressed
** or implied, with respect to this model, including the warranties of
** merchantability or fitness for a particular purpose. The model is
** provided solely on an "as is" basis. The entire risk as to its quality
** and performance is with the customer.
*****************************************************************************
*
** Released by: WEBENCH Design Center, Texas Instruments Inc.
* Part: TPS7A0530P
* Date: 24MAY2018
* Model Type: Transient
* Simulator: PSPICE
* Simulator Version: 16.2.0.s003
* EVM Order Number:
* EVM Users Guide:
* Datasheet:
*
* Model Version: Final 1.00
*
*****************************************************************************
*
* Updates:
*
* Final 1.00
* Release to Web
*
*****************************************************************************
* Model Usage Notes:
*
* 1. The following features have been modeled
*      a. Start-up behaviour is modeled
*      b. Line transients 
*      c. Load transients
*      d. Current Limit and current foldback is modeled
*      e. PSRR is modeled only till 1st pole and 1st Zero (Model limitation)
*      f. Quiescent current
* 2. Noise characteristics and temperature effects are not modeled
*****************************************************************************
*$
.SUBCKT TPS7A0530P_TRANS EN GND VIN VOUT PAD
$CDNENCSTART
eee8c5c7a2bc4b01f045f303678664e7916da0bae22e8cb0bba041dd67c69ce448ea70148a9ac1670c8926c1ac5057c8ccfcd77bf87ca9dc04f940e15865066b
7063cf2e01640845f45310c19b6b8ee5c016648d0cf427ce2333a016061f78ba24fdfd9bb2e10b07b7afb30254a7f6a5928789a2f07d6a83f206b1e24bafe9c5
615a28c46d723740aa08d8390043dce8db3a4d7457b81a280a0ec22218277ba4bf1ee911780421dd3078482b5d5137e8502e46e8d7cbd5e43bfb8d1e0bf57cad
717cdf892ff6b6ffa60fd3951de4fe94f62cc45356863029bf1ee911780421dd3078482b5d5137e8502e46e8d7cbd5e4a3c40a070c97fac9b703cef416601f3b
a16523cb4c600880aa08d8390043dce8b36eba20111d88acbcfdbad4c7a0b23d9c99a6f8ecce348375963efd3ee34e16b032015482838020199902ef25e0ffab
d24b51ea77d68888c118837b966fb9c165ec96d6e36d36a81b97109601d8da6cbb8ee414ca0312bd9146273af912c1af0893dfc8c9b8162835ddd794b904c74a
4b6085f2012636678ee5eab1ce21437b9f9cefdf57bbeb6cbb31f4ed3d4351f7eef5fc84006955e740f032673e1aff839acd3f5ea225b9576fda19c9359fa036
90124f6cbed1c8c0706b807646b80371f61d65b57999d8accf362d684e943818cdd6c3d82d863cfa84115c0ab381c57e5665369ee065fb03f9c068dc5cec45e2
81a9746d786d11d64597b28a3abd9880c11ce49a42daa0d885e288ccce97ed218ae4138477307639d2bbd7e847d638e1e776e9b255bda08c8cc849879194c8ab
021166ac3753b7b82c4b5f36edab5d857119019e24efbc5ef18f5b060b948daea45d9ab9776da897427ad3d82eccc2a7f95f3af0cadebbbad2884866c1ca8244
4b6085f2012636675a0aa31c52cddba976617f42cd5d956b84115c0ab381c57e5665369ee065fb0370fed1d7e7e2f1d74b085c98874c6ee43adcf5617f6a4f07
ddf70eae3b592905a60fd3951de4fe947919dadca5b7da2d3b79d1cd0e073c32b7afb30254a7f6a5928789a2f07d6a83daf38f1438d9e2a9dbb246cd2b7ecbe2
b8b56863f55c875e94fbbbfac28a5c5cb686a80b117e185d78b54ce720b1001e5702f8045be5988d48c4805203a5c137add0cd665cd92d416543aa842818b0d5
04f5acd939422ec02fbfcc2b872ff94609742e5921ee6c26ce5ec34e6f8ad1ca6e02cd619ff2cf87bba78e549769b5b69df1af93d6544d48084e1162bd10742f
8f87abf34a7ecbdc37080f586b2fbb9f644126c9831a96bd84115c0ab381c57e5665369ee065fb0370fed1d7e7e2f1d74b085c98874c6ee43adcf5617f6a4f07
3e2f6d3b6fa1f79eadd0cd665cd92d41836b160a57b4fd25919adc2540fd5bf258d29cd185944e6990b1cbb144c56441c979229ea8fa50ba449f744495939346
394197bedeb77a71acab1d0766be876c8ba546cd26034077c03dd50e230051ad616f60a9ef7575d1fa7fdde3c434adb626a4a52d1f2a5856e6f58a87b57cdfe1
904e90e8e5b2fbfdb9d15c5be4e02d4918754e13dba8dbd33fcc20578536d17e644126c9831a96bd84115c0ab381c57e5665369ee065fb03f9c068dc5cec45e2
065d26286aaf2f122531ce9df5eb06033d94f1e30358424e2f056562289fda5523b782b3d6a37df1c118837b966fb9c165ec96d6e36d36a84cf4500bc25b4133
86ad213343ec82a92c4cbab0291893207ddbaf4dface6fc5d4cc5741811e328e23b782b3d6a37df1c118837b966fb9c165ec96d6e36d36a84cf4500bc25b4133
c0ff0c48b49f7f334597b28a3abd9880cddd1b2c7d08da7fb0442dce92d33afb478a87bc5b8e6cf92c4b5f36edab5d857119019e24efbc5e14ba27c5f8398a8e
240cf6a83072ff1ac71f2ec08efb7527e669cd180bf3e26a3cafa1326cfe1874949d6e4437d829a1bf659a476171f3dc616f60a9ef7575d15c2b3ac0bb301873
311fb123761f1dd129c75dcdf45ee2c9115096dc0c69998cc118837b966fb9c165ec96d6e36d36a81b97109601d8da6cbb8ee414ca0312bd893588b34d186806
a40072fa2b99fd1b706b807646b803712c8fce4fe11cffed06893d1f608340c31a57e3204fc8087fc96625c45fc81f376908c46321d64a826653698ee93a71da
fa68f365a2a9a9bbf60ecfe3dff4fab2b7afb30254a7f6a5928789a2f07d6a83daf38f1438d9e2a951ae23757d5c2d5f1ae429bac21e536ab5743ee74a772c88
cdaa385411811e27bfd81d659a09e4b32637e9cac2aa5cea2cecad1ebf804c4bf467148f06ca8e433078482b5d5137e8502e46e8d7cbd5e43bfb8d1e0bf57cad
6dcfb6d5e8929f04706b807646b8037110fe20894a82e47899b87aceb23e86970c7e012bffe34f9d2fd4a791317eac01bb31f4ed3d4351f7aa02ed82c08d4e8b
311fb123761f1dd13cc022e243764f1faeff3e6ce5faa9e52c4b5f36edab5d857119019e24efbc5ef18f5b060b948daea45d9ab9776da897613439d86fcb2700
54653036f112a7e5706b807646b803710e1d0d69cc09017f008dd3578f4a1956bda456e8ba5dde02653b5dcfa0c8c8ae042f0c0c78bb0deb4e6271cb38b453e9
2671091ba70d1568706b807646b8037112d5414bf961bf12e560c959dcca8cd6cc9e50a5228845a085acf12f6f0fcf809134a646082bd8ae045e35488dc8d857
96cc4b5209c35bf775963efd3ee34e162c4b5f36edab5d857119019e24efbc5ef18f5b060b948daea45d9ab9776da897427ad3d82eccc2a75f0503360dc758d2
cdaa385411811e27bfd81d659a09e4b32637e9cac2aa5cea2cecad1ebf804c4bf467148f06ca8e433078482b5d5137e8502e46e8d7cbd5e43bfb8d1e0bf57cad
a5d158a0fc11634f706b807646b80371c1d303cdb19fdcef2b9fd23fad97521a56bfede5d11cc7caadd0cd665cd92d41836b160a57b4fd25b8b4853a134635fd
8df0563ff6b12bcb706b807646b80371c40db3808310b1468d5aa40cb2332d6f855e487a2800314b3078482b5d5137e8502e46e8d7cbd5e43bfb8d1e0bf57cad
5aa875be979324eb706b807646b8037106893d1f608340c31325fee8f24ce546e71f71e18758417184115c0ab381c57e5665369ee065fb03f9c068dc5cec45e2
07b8b607253a07a2706b807646b80371e560c959dcca8cd625a084edf9a537bf00877b91cd4279f39377af7e54bb163f9e3e4f75c74b8b1af6c8b208a55c3008
a3ce589fda26bc39706b807646b803710e1d0d69cc09017fa1509de14db0b9ec4c72f22f30e14f31042f0c0c78bb0deb616f60a9ef7575d15c2b3ac0bb301873
4130590ac940df72706b807646b8037195cfd33ccd56f2c7aef5faa9b9d114588de691ddd4293588a32a9f5de4fdf71d60a188d940e604c1ecf22f43cd602b91
44286f328a01b55967d2eff95da56274616f60a9ef7575d1fa7fdde3c434adb626a4a52d1f2a58560936ce878d54ab1ef8a6e65a3b0c361ee4f319eeda367027
4b6085f2012636678ee5eab1ce21437b2e9df1947bfa450df79ed346fe02bf5d84115c0ab381c57e5665369ee065fb0370fed1d7e7e2f1d7089d54a3c74c725f
6dcc2999c2dfe559706b807646b803715848080d0457631018d8dcb8c87069de712f7945e273ad043078482b5d5137e8502e46e8d7cbd5e43bfb8d1e0bf57cad
0be1bd08545f4ec3706b807646b803710d704e2319f4426eb727347f43209366c118837b966fb9c165ec96d6e36d36a81b97109601d8da6c2573a0b971b84203
385bb969478bc1fd7509c136893a3e2e2688e0dfc494de0fa05c5098b4f2d71d6790562ac97fa9372b39496d8eed4513192fb0130cd26ef2491c3f072e96755f
33b35530770e96c3bb31f4ed3d4351f7eef5fc84006955e740f032673e1aff839acd3f5ea225b957188fa1a81944a085ac11817082929bd9507f6e906f4f0906
6700a2a6ef06102539f254a10daf15d6ef05e0b458617e73b4920ce1b9c63206e73070a45f1d549cb7afb30254a7f6a5928789a2f07d6a83f206b1e24bafe9c5
69ff18044fae7c89706b807646b803710e1d0d69cc09017f83db50ce616e99688d0d7d270fe4b7fb3078482b5d5137e8502e46e8d7cbd5e43bfb8d1e0bf57cad
6bc6bcfc0cf717f3706b807646b803710e1d0d69cc09017f9f6f26d8292ed07737a6a454c38136f2add0cd665cd92d41836b160a57b4fd25b8b4853a134635fd
02dac6cba784505e706b807646b80371e13768767d1ad4df6d2099228887f927c7b3ca07e032854695918ef933af3e0df357d2495314aea2abb485c8ac7a39ac
9e700d1bd10bd6d1706b807646b80371ed5711e40d45802b61698dfbf8657ce6fec09a3dc3f5b4bc66d837958b36832c616f60a9ef7575d15c2b3ac0bb301873
f28257b2a3730294706b807646b80371c1d303cdb19fdcef2b9fd23fad97521a5699b53886fa29b6add0cd665cd92d41836b160a57b4fd25b8b4853a134635fd
e9f419af62bfe95ebc27f931268b4061819f482ced2d14da2c71c45202431155ce5ec34e6f8ad1cac13ffc8b6ae5cb2e4a2edc29a53e23e5909669e0b73a8f95
5d078000650a8fa54ef0dc8567d6d4ea1d8239f2d1a53635e60e6d4808ee42280794cbd97559f929616f60a9ef7575d1fa7fdde3c434adb61c5ec2b1e0c52d9a
e9f419af62bfe95ecc0121b5e20e2076819f482ced2d14dab26871b2b1938100ce5ec34e6f8ad1cac1550d7a244ac219a4daa95c07252e71d38aff4e12555a5d
0a74212461f65cb9c0313f4b89f5b9a390d894e2512433315b102e47ac4eb17eadd0cd665cd92d41836b160a57b4fd25919adc2540fd5bf209f5fd42216a33ba
bc8ee2299b220803beda7935c8aeca8d90d894e251243331dc0745283a910a9d616f60a9ef7575d1fa7fdde3c434adb626a4a52d1f2a5856e6f58a87b57cdfe1
e9f419af62bfe95edca29065f7b4a684696ce76c04a2281e749d13634498f34b6f49004d18e3f79af31b5239ad0366cace735722d942bfaa9caba4098f5ad283
ceb150541188a7d608daf3f4a72c9dd1616f60a9ef7575d1fa7fdde3c434adb626a4a52d1f2a58560936ce878d54ab1ef8a6e65a3b0c361ee4f319eeda367027
8567fa61d0589ca2c1fb5ea162ffd514e71f71e18758417184115c0ab381c57e5665369ee065fb0370fed1d7e7e2f1d74b085c98874c6ee43adcf5617f6a4f07
2f646e0e8d7ca9fb860341bb47536c89d3c6f4cd3b9e53669f7df7e1d853713798709113e7ea04d2b5f1c17ee79563033078482b5d5137e82bbfb2529f60e095
afe317ae10e981554d4254bd6ea7db5ce743baf0184b471e0b27f2055a0da9f550b68e525081a314694d037dac96769a8b76e1023bea0c1650794576b4f63d0d
5e907deffd12c5ffdd06c2baef735cae36806a8e381bf9a084115c0ab381c57e5665369ee065fb0370fed1d7e7e2f1d74b085c98874c6ee43adcf5617f6a4f07
8767f397bff4c3a731bbfa71d5efb6fe825b843a3aa9ddcdadd0cd665cd92d41836b160a57b4fd25919adc2540fd5bf258d29cd185944e699a943de2e96359db
0b00c72b7c2c95cd470d0f9751e4b42cb5dd89e0eada5e2fe396935d8a86e87635d318236044643d644126c9831a96bd84115c0ab381c57e1d06ebc1e9526a1e
311fb123761f1dd162b4c6ecf862bcb207799495a1eaf6c8e9d87f4c0d6de8c6bb31f4ed3d4351f7eef5fc84006955e740f032673e1aff8328407c8e0add014d
2a76c18f665e8c272c4cbab029189320d042b92eba138a7c9f7df7e1d8537137dc26028ef70590f4b5f1c17ee79563033078482b5d5137e82bbfb2529f60e095
c43ca65fb3926f3b26c880f485e2ca3431ea91f16030bd10480b083f93abc69fc118837b966fb9c165ec96d6e36d36a81b97109601d8da6c2573a0b971b84203
316c4e958281b8050abfc569c2f15564b686a80b117e185d78b54ce720b1001eabc451dd60053dfa35d318236044643d2c4b5f36edab5d85ebd3c61868dfc5e5
b052355e65d40bda841ca448a0a0a21556f25e1ddd1e121bf97d1368c74a917b39766c88419d9ac47b369167ece0cb142c4b5f36edab5d85ebd3c61868dfc5e5
bedb4c285028d38910a5fcbe7a8691e3083ee8af2c4e47f9b4da617ea7d06be89e92269ee3608b324d5b1b73307b1303b7afb30254a7f6a562b13672c12344a2
e83d563d614d5ce9aa08d8390043dce802d12a0a777f99688392764025f835b8478a87bc5b8e6cf92c4b5f36edab5d857119019e24efbc5e14ba27c5f8398a8e
881857014bf756d4706b807646b80371a2999827b5efae5d8492e52ca99071373788c3eded43d1573b80253c4f5eb5e2f7cf99edbf0a10ad8ddef45e1d872303
fe9073afece57ff8706b807646b80371c195136471ff4f858492e52ca9907137c32e32cca6618f9ff59c88a9d6b2d784794a0a216e71a6abf44496155f03ed4f
62748d827ca277c7706b807646b803719373dfcebab95b468492e52ca9907137c32e32cca6618f9fb106c03595ed9d525e4a7c7a76e658f2c706f9f16c578ebd
c95aa063c2c77e2fb0d0e98d9c011590f6c57157062f5a9984115c0ab381c57e5665369ee065fb0370fed1d7e7e2f1d74b085c98874c6ee43adcf5617f6a4f07
e2a940f3b8cefa37bb31f4ed3d4351f7eef5fc84006955e740f032673e1aff839acd3f5ea225b957188fa1a81944a085ac11817082929bd9507f6e906f4f0906
bcd47878fdf46051706b807646b80371d46c95dd2bceac698492e52ca9907137c32e32cca6618f9fbba78e549769b5b6a2b4ff936e38a05e5ba162f215351813
9b5c941047af748c4f773e0034adc41525aee7ea038725f336fb420f5a067a1ebb31f4ed3d4351f7eef5fc84006955e740f032673e1aff8328407c8e0add014d
93d3808648446fd760c210771409cb2ebcc70c4cf72ad168b531fdb8889633b4bf1ee911780421dd3078482b5d5137e8502e46e8d7cbd5e43bfb8d1e0bf57cad
c9df73872fc60450eae9d265653f2ee8179d5ada8da39dea3fd7a65d1bf1119c507590b364aef2f581e4ea679ac37136c118837b966fb9c1b54ae7ee24d88061
171d979aaf3d706b6187a708a866298278b9e20829362dfab579b96787cce3a1bb9f5a77f7dad917644126c9831a96bd84115c0ab381c57e1d06ebc1e9526a1e
23ee73d6065f364126c880f485e2ca344f208d931557ffde56bfede5d11cc7caadd0cd665cd92d41836b160a57b4fd25919adc2540fd5bf209f5fd42216a33ba
560bc4dfcba57a2c4597b28a3abd98801ded392420ecd7b300877b91cd4279f3012dad022990b34d3efcea856e03cbcbbb31f4ed3d4351f7aa02ed82c08d4e8b
3b59b36ad64eb5864597b28a3abd9880a713626407c245e3c78e2b5d14e913c21bc90dac9682697462d766f77596a54bbb31f4ed3d4351f7aa02ed82c08d4e8b
857620ce20ef86cb26c880f485e2ca340210c887585ac147ec673e334d6e7ccd24fdfd9bb2e10b07b7afb30254a7f6a5928789a2f07d6a83f206b1e24bafe9c5
b0eb42ca922cce592fbfcc2b872ff9464a55d4bced9e4fe6ce5ec34e6f8ad1ca4a00a148cfaed3418ea1cdb02096171b2594fc6756c8b3f583a3a146f650f598
39438c6af260813937080f586b2fbb9f644126c9831a96bd84115c0ab381c57e5665369ee065fb0370fed1d7e7e2f1d74b085c98874c6ee43adcf5617f6a4f07
3e2f6d3b6fa1f79eadd0cd665cd92d41836b160a57b4fd25919adc2540fd5bf258d29cd185944e6990b1cbb144c56441c979229ea8fa50ba449f744495939346
9afa1f10a7f457ea0abfc569c2f15564328c0ca9c9577ddb5d57e03628cc09e33bfc0ce7f97e07f1add0cd665cd92d41836b160a57b4fd25b8b4853a134635fd
102778d1f868b7a44597b28a3abd9880e252c8d2ef8147c400877b91cd4279f3fb879ac81a0715323f26ce7690785f81e71f71e18758417189b55903a5d2c450
98b5f0d56fa74586371dd2737e0b85bba210898a7fe432c9eecfc80ea4af6ee63e689466561c05477d95e953ba5e607e3078482b5d5137e82bbfb2529f60e095
e0bee0f3fadd672460c210771409cb2ebcc70c4cf72ad168f24bf58ddadd36c75fbceec05a2e4b3f7d7f15953a32e2dc2c4b5f36edab5d85ebd3c61868dfc5e5
a1642ab168aedbca706b807646b8037186848c868e836feece5ec34e6f8ad1ca47c059b5d0a0c35e8bcbb2c8a045dd70b6e39077672bfb6f4ad05e0953e7dbb0
484e2a1e0c686ea4e73070a45f1d549cb7afb30254a7f6a5928789a2f07d6a83daf38f1438d9e2a951ae23757d5c2d5f1ae429bac21e536ab5743ee74a772c88
5c2e262d493b312fa7aa53100c9e1bbea947b049e5632dc590449a6411b06b9bddaaa86168801b89710f626c2faf14a63078482b5d5137e82bbfb2529f60e095
705d459f50f7a08caa08d8390043dce8f0f742c13d58085d83463dd640f012e500d3e0b087c73744add0cd665cd92d41836b160a57b4fd25b8b4853a134635fd
48a94d11d238250fbd779fda6b52ad68d41b4198cefa76e5f7398011ad297cf0d00d5975cd859b241d208a416950de6d2c4b5f36edab5d85ebd3c61868dfc5e5
81bc0cb7c12452444597b28a3abd98808c834c30f0724aafe86f7f9f4439b1be97d0bdc16e1372b18dcea2cdd2d3d5cc9783ae8e4821c68fb9549840541e7e65
2b1410deca799d73bb31f4ed3d4351f7eef5fc84006955e740f032673e1aff839acd3f5ea225b957188fa1a81944a085ac11817082929bd9507f6e906f4f0906
4b6085f2012636678ee5eab1ce21437b38cecbe865060c9ebb31f4ed3d4351f7eef5fc84006955e740f032673e1aff839acd3f5ea225b9576fda19c9359fa036
b90e0c5fe970b38760c210771409cb2e148a45651d59bf765852fa615e2c04705d57e03628cc09e34d25a4d6d4c345ea1232df971c732ff109d562e0edbace3a
61f0acdd6f1a2e994d4254bd6ea7db5cde347c9f8fc1382178b54ce720b1001e7cdcf61de42ce3d848c4805203a5c137add0cd665cd92d416543aa842818b0d5
f80a395284a571112fbfcc2b872ff94636f9e28497ed1479ce5ec34e6f8ad1caa70718c54ca105391764c88c178ac69b6d2aa86b77a26c951aabfa10941d45cf
2cfd781695004e38d830161ad1c9f657af0f8a5c02c749ac6c6da8a513ed7cff778515bf5bdcffe1553321337b44e03e3e44cced53bae0fb0d4e1801a3fca697
3fb2b957a1ab67f135debebda33605d62c4b5f36edab5d857119019e24efbc5ef18f5b060b948daea45d9ab9776da897427ad3d82eccc2a75f0503360dc758d2
62de40c9486cbee4cdc8a9752f86f4a5b0c0af25d2c930829ee2f92e9ef2e6b5b130c82169198feb2c4b5f36edab5d857119019e24efbc5e14ba27c5f8398a8e
$CDNENCFINISH
.ENDS TPS7A0530P_TRANS
*$
.subckt TPS7A0530P_S2 1 2 3 4  
$CDNENCSTART
eee8c5c7a2bc4b01f045f303678664e7916da0bae22e8cb0bba041dd67c69ce448ea70148a9ac1670c8926c1ac5057c8ccfcd77bf87ca9dc04f940e15865066b
c21144fd15b2c61331820e631d1d1d7423f284e2e346bfb82c4b5f36edab5d857119019e24efbc5ef18f5b060b948daea45d9ab9776da897613439d86fcb2700
e07b7a6acd4bf43c6f31076d2b37e96baa35006d782c6ce9add0cd665cd92d41836b160a57b4fd25919adc2540fd5bf258d29cd185944e699a943de2e96359db
1e7e75f62a07f7b1bbcb463bf6330e44eff574bcdcb677aa0ffb76e2ddf4497bb51039ba9bf0633005e29b7bc78d69e823fd5e25d173f9f9e0e7f5153cc5dbfe
$CDNENCFINISH
.ends TPS7A0530P_S2
*$
.subckt TPS7A0530P_F1 1 2 3 4  
$CDNENCSTART
eee8c5c7a2bc4b01f045f303678664e7916da0bae22e8cb0bba041dd67c69ce448ea70148a9ac1670c8926c1ac5057c8ccfcd77bf87ca9dc04f940e15865066b
ae601cf82fbefc0c31820e631d1d1d74872d6da6e74e75ee2c4b5f36edab5d857119019e24efbc5ef18f5b060b948daea45d9ab9776da897613439d86fcb2700
969b68e4450fa8bd6f31076d2b37e96b3a7bc5327c69eeafadd0cd665cd92d41836b160a57b4fd25919adc2540fd5bf258d29cd185944e699a943de2e96359db
$CDNENCFINISH
.ends TPS7A0530P_F1
*$
.subckt TPS7A0530P_H2 1 2 3 4  
$CDNENCSTART
eee8c5c7a2bc4b01f045f303678664e7916da0bae22e8cb0bba041dd67c69ce448ea70148a9ac1670c8926c1ac5057c8ccfcd77bf87ca9dc04f940e15865066b
a2c6d4276581f43b31820e631d1d1d74e2b5c77e8ecaba962c4b5f36edab5d857119019e24efbc5ef18f5b060b948daea45d9ab9776da897613439d86fcb2700
9c9fc54f66c2cffa6f31076d2b37e96b3a7bc5327c69eeafadd0cd665cd92d41836b160a57b4fd25919adc2540fd5bf258d29cd185944e699a943de2e96359db
$CDNENCFINISH
.ends TPS7A0530P_H2
*$
.subckt TPS7A0530P_S3 1 2 3 4  
$CDNENCSTART
eee8c5c7a2bc4b01f045f303678664e7916da0bae22e8cb0bba041dd67c69ce448ea70148a9ac1670c8926c1ac5057c8ccfcd77bf87ca9dc04f940e15865066b
49437a5c2c000e5531820e631d1d1d7451c16968e1146dc52c4b5f36edab5d857119019e24efbc5ef18f5b060b948daea45d9ab9776da897613439d86fcb2700
196545b3a77859896f31076d2b37e96baa35006d782c6ce9add0cd665cd92d41836b160a57b4fd25919adc2540fd5bf258d29cd185944e699a943de2e96359db
1e7e75f62a07f7b1bbcb463bf6330e449fca2d09a1602b870ffb76e2ddf4497bc57cfae156c3adf460af065159bb8f64624026ab62cb6810f82517c7f9ad4e07
$CDNENCFINISH
.ends TPS7A0530P_S3
*$
.subckt TPS7A0530P_S1 1 2 3 4  
$CDNENCSTART
eee8c5c7a2bc4b01f045f303678664e7916da0bae22e8cb0bba041dd67c69ce448ea70148a9ac1670c8926c1ac5057c8ccfcd77bf87ca9dc04f940e15865066b
44f117741689d59131820e631d1d1d749e35700c7913e9392c4b5f36edab5d857119019e24efbc5ef18f5b060b948daea45d9ab9776da897613439d86fcb2700
3c76beba9b808c126f31076d2b37e96baa35006d782c6ce9add0cd665cd92d41836b160a57b4fd25919adc2540fd5bf258d29cd185944e699a943de2e96359db
1e7e75f62a07f7b1bbcb463bf6330e447b3ba2fd65dbf9050ffb76e2ddf4497bc57cfae156c3adf48e5e1fe45d9e77f1e95ccae7279650a8d3b55e518a88efc0
$CDNENCFINISH
.ends TPS7A0530P_S1
*$
.SUBCKT COMPHYS_BASIC_GEN INP INM HYS OUT PARAMS: VDD=1 VSS=0 VTHRESH=0.5	
$CDNENCSTART
eee8c5c7a2bc4b01f045f303678664e7916da0bae22e8cb0bba041dd67c69ce448ea70148a9ac1670c8926c1ac5057c8ccfcd77bf87ca9dc04f940e15865066b
9132b7121104d4358be44c41ab888f41b6e3a1568843d8672c4b5f36edab5d857119019e24efbc5ef18f5b060b948daea45d9ab9776da897613439d86fcb2700
70d49a25931fcad5af5f0f227a33dfc56b574213c15e8d8904d73209bd6cb354e07469d76c73f504727902e71a3e75d8bb77e20fe987edd8d38aff4e12555a5d
d1579de13894cc53749d13634498f34b2814ec203481f38f6485690991963efc688dc2cfc32ec3a9609956094a2f05290f82827fc36822f02ba2c1c1728c017b
c985c90e830fff9457e2c5aa808513703078482b5d5137e8502e46e8d7cbd5e4a3c40a070c97fac922f5d9540a9cccee3653f2709cfc8a4a4b92700e53175236
1fdb31c906bbcd7763285b290822439184115c0ab381c57e5665369ee065fb0370fed1d7e7e2f1d74b085c98874c6ee48bef7cad85519f4d34d83ba13afed546
13142c038a62aa150aa66cfdd7abddd7bb31f4ed3d4351f7eef5fc84006955e740f032673e1aff839acd3f5ea225b957188fa1a81944a08544dca8d9245cdb97
$CDNENCFINISH
.ENDS COMPHYS_BASIC_GEN
*$
.SUBCKT D_D1 1 2
$CDNENCSTART
eee8c5c7a2bc4b01f045f303678664e7916da0bae22e8cb0bba041dd67c69ce448ea70148a9ac1670c8926c1ac5057c8ccfcd77bf87ca9dc04f940e15865066b
b3390a098a7d87064e46dd92806239d23078482b5d5137e8502e46e8d7cbd5e4a3c40a070c97fac922f5d9540a9cccee3653f2709cfc8a4a4b92700e53175236
d7072740a938f0e752008c48b90a111404d36cec99b77dc0a7f03d1e581742ea8b798ad314fde7ff78bb0ee6e0e668e4616f60a9ef7575d15c2b3ac0bb301873
$CDNENCFINISH
.ENDS D_D1
*$
.SUBCKT BUF_DELAY_BASIC_GEN A  Y PARAMS: VDD=1 VSS=0 VTHRESH=0.5 DELAY = 10n 
$CDNENCSTART
eee8c5c7a2bc4b01f045f303678664e7916da0bae22e8cb0bba041dd67c69ce448ea70148a9ac1670c8926c1ac5057c8ccfcd77bf87ca9dc04f940e15865066b
f305b7cfa0765161b7a8d0a5fa27600f87c337a6226f9c259ce2376dcef929e055e2d3dce1717d717ca80a2ba8175d7ecf49909a32f1b23e09d562e0edbace3a
7e21bb79cbca9f8ce0c67063107b52eb2c4b5f36edab5d857119019e24efbc5ef18f5b060b948daea45d9ab9776da897427ad3d82eccc2a75f0503360dc758d2
bd9831b9881f0b92004c220067cfdabf57e2c5aa808513703078482b5d5137e8502e46e8d7cbd5e4a3c40a070c97fac922f5d9540a9cccee170caa7448fed61b
99cb3fa3ad4040ee39d350e60ca2338a43558a6d1f49bc892c4b5f36edab5d857119019e24efbc5ef18f5b060b948daea45d9ab9776da897613439d86fcb2700
f305b7cfa0765161c36180965553170d8da13727b91264449ce2376dcef929e07d4a1829490ab8db9b0e7c0027d2abb9e6efecb6122f9b38d38aff4e12555a5d
7e21bb79cbca9f8ce0c67063107b52eb2c4b5f36edab5d857119019e24efbc5ef18f5b060b948daea45d9ab9776da897427ad3d82eccc2a75f0503360dc758d2
8d3568177ac8ace9a0338d780f826fc6bb31f4ed3d4351f7eef5fc84006955e740f032673e1aff839acd3f5ea225b957188fa1a81944a08544dca8d9245cdb97
042d1e8ae349b80f5801d29f353ff668add0cd665cd92d41836b160a57b4fd25919adc2540fd5bf258d29cd185944e6990b1cbb144c5644105e5e75e3cb48ce0
$CDNENCFINISH
.ENDS BUF_DELAY_BASIC_GEN
*$
.SUBCKT AND2_BASIC_GEN A B Y PARAMS: VDD=1 VSS=0 VTHRESH=0.5 
$CDNENCSTART
eee8c5c7a2bc4b01f045f303678664e7916da0bae22e8cb0bba041dd67c69ce448ea70148a9ac1670c8926c1ac5057c8ccfcd77bf87ca9dc04f940e15865066b
f305b7cfa07651615a9037c8c42a602b94aebb18efc1b73c4a0534bc16c6b751d67091752c09698a1541fe9d381cc675621f57e8bf9b586e09d562e0edbace3a
ce312808b0a91175dcf306adebf133c01a6c7500361cb5a45652e10015a645e7e71f71e18758417184115c0ab381c57e5665369ee065fb03f9c068dc5cec45e2
bd9831b9881f0b92e8f02e93fcf213a8616f60a9ef7575d1fa7fdde3c434adb626a4a52d1f2a58560936ce878d54ab1ef8a6e65a3b0c361ee4f319eeda367027
02f2959404528fbd9ad2dc2e0af5de0eb7afb30254a7f6a5928789a2f07d6a83daf38f1438d9e2a951ae23757d5c2d5f1ae429bac21e536ab5743ee74a772c88
$CDNENCFINISH
.ENDS AND2_BASIC_GEN
*$
.SUBCKT SRLATCHRHP_BASIC_GEN S R Q QB PARAMS: VDD=1 VSS=0 VTHRESH=0.5  
$CDNENCSTART
eee8c5c7a2bc4b01f045f303678664e7916da0bae22e8cb0bba041dd67c69ce448ea70148a9ac1670c8926c1ac5057c8ccfcd77bf87ca9dc04f940e15865066b
08e147163f37b483eb1553db51121b0af03ffeaf6f4cc2495403a992dada814087dbbe4c721b28118ac3abcaf6d8f63e75c06ff6952a82ffe54dea19fa791efd
030b252e024c556cc118837b966fb9c165ec96d6e36d36a81b97109601d8da6cbb8ee414ca0312bd9146273af912c1af0893dfc8c9b8162835ddd794b904c74a
a405048fcac30c1a77b95916f96d463b2c4b5f36edab5d857119019e24efbc5ef18f5b060b948daea45d9ab9776da897427ad3d82eccc2a75f0503360dc758d2
b75a50bb44e3b503f2667b5cb330c5cf7d9a27b91a009a4a616f60a9ef7575d1fa7fdde3c434adb626a4a52d1f2a58560936ce878d54ab1e0c6c63b77e2a7077
1033be605ac86fd802147ff4d5c4cb2f4f8181b227c1b6b5add0cd665cd92d41836b160a57b4fd25919adc2540fd5bf258d29cd185944e699a943de2e96359db
4d7ee7dde33e9387d311a5de088d45a5bb31f4ed3d4351f7eef5fc84006955e740f032673e1aff839acd3f5ea225b957188fa1a81944a08544dca8d9245cdb97
df95d7fdcea3a2180d504e4cc1a75a093ae2468b9ecaccb9c118837b966fb9c165ec96d6e36d36a81b97109601d8da6cbb8ee414ca0312bd893588b34d186806
193c989aae9fedb66f74756715268570bf1ee911780421dd3078482b5d5137e8502e46e8d7cbd5e4a3c40a070c97fac922f5d9540a9cccee170caa7448fed61b
99fafaa2580fb990086c1f20d6d180eb303d7240d8c3139d3078482b5d5137e8502e46e8d7cbd5e4a3c40a070c97fac922f5d9540a9cccee170caa7448fed61b
b8c0b98b8ee14d0e86fb6fea0644b392d2bbd7e847d638e1e776e9b255bda08c858b231094abeea61f9a9c561ad56bf1e3c1957d735cf1403eb0abf7d3e723a6
5c58db27c3805ea579ec59d2010a8d85b7afb30254a7f6a5928789a2f07d6a83daf38f1438d9e2a951ae23757d5c2d5f1ae429bac21e536ab5743ee74a772c88
7e2980978c86958c5a2203ebe700ca12c118837b966fb9c165ec96d6e36d36a81b97109601d8da6cbb8ee414ca0312bd9146273af912c1af7fc25f57e9eb7756
161224ee3eeadb9c8492e52ca99071370aa8feaa9dcff1516e87bca1c6f42fe3e8a5dce5e40df7ad937cd11398766dd32a641aaab1b9ab442ba2c1c1728c017b
04db544825bf7de1ee259b687a060a57c118837b966fb9c165ec96d6e36d36a81b97109601d8da6cbb8ee414ca0312bd9146273af912c1af7fc25f57e9eb7756
97c9333151ea8fa7c28a4c769cde9ef72c4b5f36edab5d857119019e24efbc5ef18f5b060b948daea45d9ab9776da897427ad3d82eccc2a75f0503360dc758d2
8f7b8724f31a9e8c1250a7e9a95e2aa32c4b5f36edab5d857119019e24efbc5ef18f5b060b948daea45d9ab9776da897427ad3d82eccc2a75f0503360dc758d2
cb3de6a18d5d6014b511a41d3b9c21e6608e5066341ff6bd3078482b5d5137e8502e46e8d7cbd5e4a3c40a070c97fac922f5d9540a9cccee170caa7448fed61b
d7072740a938f0e76796778f313a81b5bcf1ee82bdd45fd86d0ad17b3ef49a3d2ed4e03f3e56f24b8cef131fcf4336b7c118837b966fb9c1b54ae7ee24d88061
$CDNENCFINISH
.ENDS SRLATCHRHP_BASIC_GEN 
*$
.SUBCKT BUF_BASIC_GEN A  Y PARAMS: VDD=1 VSS=0 VTHRESH=0.5  
$CDNENCSTART
eee8c5c7a2bc4b01f045f303678664e7916da0bae22e8cb0bba041dd67c69ce448ea70148a9ac1670c8926c1ac5057c8ccfcd77bf87ca9dc04f940e15865066b
f305b7cfa07651615a9037c8c42a602b94aebb18efc1b73c4a0534bc16c6b751d67091752c09698a1541fe9d381cc675a36c87e87e29573113519a8a855bad68
608e5066341ff6bd3078482b5d5137e8502e46e8d7cbd5e4a3c40a070c97fac922f5d9540a9cccee3653f2709cfc8a4abba5a39f7d54a27bdf950741327a423a
bd9831b9881f0b921b3d46da13888b1ec118837b966fb9c165ec96d6e36d36a81b97109601d8da6cbb8ee414ca0312bd9146273af912c1af7fc25f57e9eb7756
02f2959404528fbd5dd00b2186f9e93dadd0cd665cd92d41836b160a57b4fd25919adc2540fd5bf258d29cd185944e6990b1cbb144c5644105e5e75e3cb48ce0
$CDNENCFINISH
.ENDS BUF_BASIC_GEN 
*$
.SUBCKT INV_DELAY_BASIC_GEN A  Y PARAMS: VDD=1 VSS=0 VTHRESH=0.5 DELAY = 10n  
$CDNENCSTART
eee8c5c7a2bc4b01f045f303678664e7916da0bae22e8cb0bba041dd67c69ce448ea70148a9ac1670c8926c1ac5057c8ccfcd77bf87ca9dc04f940e15865066b
f305b7cfa0765161b7a8d0a5fa27600f87c337a6226f9c259ce2376dcef929e055e2d3dce1717d717ca80a2ba8175d7e413573ed95ba9f7070f497b56ae5be13
1eb5da1b1b220fdbadd0cd665cd92d41836b160a57b4fd25919adc2540fd5bf258d29cd185944e6990b1cbb144c56441c979229ea8fa50ba449f744495939346
bd9831b9881f0b92004c220067cfdabf680d2d7c8463c02ab7afb30254a7f6a5928789a2f07d6a83daf38f1438d9e2a951ae23757d5c2d5f5d65bf82f67ee6b7
99cb3fa3ad4040ee39d350e60ca2338a85bb0abd135c8ea4b2c8ac76a93edd4cb7afb30254a7f6a5928789a2f07d6a83daf38f1438d9e2a9dbb246cd2b7ecbe2
f305b7cfa0765161c36180965553170d8da13727b91264449ce2376dcef929e07d4a1829490ab8db9b0e7c0027d2abb96587de49e2c863ff5e776786199801a3
f477875b6b57c3862c4b5f36edab5d857119019e24efbc5ef18f5b060b948daea45d9ab9776da897427ad3d82eccc2a7f95f3af0cadebbbad2884866c1ca8244
8d3568177ac8ace91f72e5a2e8c9f6242c4b5f36edab5d857119019e24efbc5ef18f5b060b948daea45d9ab9776da897427ad3d82eccc2a75f0503360dc758d2
042d1e8ae349b80fea1cd9c752f58bf3616f60a9ef7575d1fa7fdde3c434adb626a4a52d1f2a58560936ce878d54ab1ef8a6e65a3b0c361ee4f319eeda367027
$CDNENCFINISH
.ENDS INV_DELAY_BASIC_GEN 
*$ 
.subckt zx 1 2 3 4 5
$CDNENCSTART
eee8c5c7a2bc4b01f045f303678664e7916da0bae22e8cb0bba041dd67c69ce448ea70148a9ac1670c8926c1ac5057c8ccfcd77bf87ca9dc04f940e15865066b
b6d5b66f8b4b5cf5995173ffa2c92685fe0ee20d803d68fea521d13c841eb6f03f0bb91cb2b56dec2c4b5f36edab5d857119019e24efbc5e14ba27c5f8398a8e
8ea6da70e16040ae7d85def2175d53d9afede746215e6972b7afb30254a7f6a5928789a2f07d6a83daf38f1438d9e2a951ae23757d5c2d5f5d65bf82f67ee6b7
423567d797b12d728884162488a37977616f60a9ef7575d1fa7fdde3c434adb626a4a52d1f2a58560936ce878d54ab1ef8a6e65a3b0c361ee4f319eeda367027
4224ba0683c7aee525d36cd23bc3bcb1add0cd665cd92d41836b160a57b4fd25919adc2540fd5bf258d29cd185944e6990b1cbb144c5644105e5e75e3cb48ce0
$CDNENCFINISH
.ends zx
*$
